Circuit: * E:\SOFTWARE\EXERCISE LTSPICE\FOURIER SERIES\Sqaure_wave_gen_fourier_series.asc

.OP point found by inspection.

Date: Sun Mar 29 10:26:58 2026
Total elapsed time: 0.159 seconds.

tnom = 27
temp = 27
method = modified trap
totiter = 10034
traniter = 10034
tranpoints = 5018
accept = 5018
rejected = 0
matrix size = 10
fillins = 0
solver = Normal
Matrix Compiler1:      14 opcodes  0.1/[0.1]/0.1
Matrix Compiler2:      49 opcodes  0.1/[0.1]/0.2

